/*--------------------------------*- C++ -*----------------------------------*\
| =========                 |                                                 |
| \      /  F ield         | OpenFOAM: The Open Source CFD Toolbox           |
|  \    /   O peration     | Version:  2.2.0                                 |
|   \  /    A nd           | Web:      www.OpenFOAM.org                      |
|    \/     M anipulation  |                                                 |
\*---------------------------------------------------------------------------*/
FoamFile
{
    version     2.0;
    format      ascii;
    class       dictionary;
    object      blockMeshDict;
}
// * * * * * * * * * * * * * * * * * * * * * * * * * * * * * * * * * * * * * //

scale 1;
Lx 12.566370614359172;
Lz 0.1;

Nx 58;
Ny 55;
Nz 1;

vertices
(
    (0 0.0 0)
    ($Lx 0.0 0)
    ($Lx 0.0 $Lz)
    (0 0.0 $Lz)
    (0 0.012813568553828923 0)
    ($Lx 0.012813568553828923 0)
    ($Lx 0.012813568553828923 $Lz)
    (0 0.012813568553828923 $Lz)
    (0 0.025628713397925735 0)
    ($Lx 0.025628713397925735 0)
    ($Lx 0.025628713397925735 $Lz)
    (0 0.025628713397925735 $Lz)
    (0 0.038449119912887124 0)
    ($Lx 0.038449119912887124 0)
    ($Lx 0.038449119912887124 $Lz)
    (0 0.038449119912887124 $Lz)
    (0 0.05128550378566344 0)
    ($Lx 0.05128550378566344 0)
    ($Lx 0.05128550378566344 $Lz)
    (0 0.05128550378566344 $Lz)
    (0 0.06416602266554693 0)
    ($Lx 0.06416602266554693 0)
    ($Lx 0.06416602266554693 $Lz)
    (0 0.06416602266554693 $Lz)
    (0 0.07715744915110842 0)
    ($Lx 0.07715744915110842 0)
    ($Lx 0.07715744915110842 $Lz)
    (0 0.07715744915110842 $Lz)
    (0 0.0904024130447915 0)
    ($Lx 0.0904024130447915 0)
    ($Lx 0.0904024130447915 $Lz)
    (0 0.0904024130447915 $Lz)
    (0 0.10417464055462508 0)
    ($Lx 0.10417464055462508 0)
    ($Lx 0.10417464055462508 $Lz)
    (0 0.10417464055462508 $Lz)
    (0 0.11894438620005394 0)
    ($Lx 0.11894438620005394 0)
    ($Lx 0.11894438620005394 $Lz)
    (0 0.11894438620005394 $Lz)
    (0 0.13543094474969308 0)
    ($Lx 0.13543094474969308 0)
    ($Lx 0.13543094474969308 $Lz)
    (0 0.13543094474969308 $Lz)
    (0 0.15460554481182795 0)
    ($Lx 0.15460554481182795 0)
    ($Lx 0.15460554481182795 $Lz)
    (0 0.15460554481182795 $Lz)
    (0 0.17760893172458753 0)
    ($Lx 0.17760893172458753 0)
    ($Lx 0.17760893172458753 $Lz)
    (0 0.17760893172458753 $Lz)
    (0 0.20557366698709276 0)
    ($Lx 0.20557366698709276 0)
    ($Lx 0.20557366698709276 $Lz)
    (0 0.20557366698709276 $Lz)
    (0 0.23938700834989665 0)
    ($Lx 0.23938700834989665 0)
    ($Lx 0.23938700834989665 $Lz)
    (0 0.23938700834989665 $Lz)
    (0 0.27947254626601825 0)
    ($Lx 0.27947254626601825 0)
    ($Lx 0.27947254626601825 $Lz)
    (0 0.27947254626601825 $Lz)
    (0 0.32567738495280213 0)
    ($Lx 0.32567738495280213 0)
    ($Lx 0.32567738495280213 $Lz)
    (0 0.32567738495280213 $Lz)
    (0 0.377313460167551 0)
    ($Lx 0.377313460167551 0)
    ($Lx 0.377313460167551 $Lz)
    (0 0.377313460167551 $Lz)
    (0 0.43333494370462317 0)
    ($Lx 0.43333494370462317 0)
    ($Lx 0.43333494370462317 $Lz)
    (0 0.43333494370462317 $Lz)
    (0 0.49257775631172146 0)
    ($Lx 0.49257775631172146 0)
    ($Lx 0.49257775631172146 $Lz)
    (0 0.49257775631172146 $Lz)
    (0 0.5539732164339497 0)
    ($Lx 0.5539732164339497 0)
    ($Lx 0.5539732164339497 $Lz)
    (0 0.5539732164339497 $Lz)
    (0 0.6166773228102814 0)
    ($Lx 0.6166773228102814 0)
    ($Lx 0.6166773228102814 $Lz)
    (0 0.6166773228102814 $Lz)
    (0 0.6801051672758783 0)
    ($Lx 0.6801051672758783 0)
    ($Lx 0.6801051672758783 $Lz)
    (0 0.6801051672758783 $Lz)
    (0 0.7438971335914384 0)
    ($Lx 0.7438971335914384 0)
    ($Lx 0.7438971335914384 $Lz)
    (0 0.7438971335914384 $Lz)
    (0 0.8078557460289008 0)
    ($Lx 0.8078557460289008 0)
    ($Lx 0.8078557460289008 $Lz)
    (0 0.8078557460289008 $Lz)
    (0 0.8718836994959078 0)
    ($Lx 0.8718836994959078 0)
    ($Lx 0.8718836994959078 $Lz)
    (0 0.8718836994959078 $Lz)
    (0 0.935937726264651 0)
    ($Lx 0.935937726264651 0)
    ($Lx 0.935937726264651 $Lz)
    (0 0.935937726264651 $Lz)
    (0 1.0000000000000004 0)
    ($Lx 1.0000000000000004 0)
    ($Lx 1.0000000000000004 $Lz)
    (0 1.0000000000000004 $Lz)
    (0 1.0640622737353498 0)
    ($Lx 1.0640622737353498 0)
    ($Lx 1.0640622737353498 $Lz)
    (0 1.0640622737353498 $Lz)
    (0 1.1281163005040928 0)
    ($Lx 1.1281163005040928 0)
    ($Lx 1.1281163005040928 $Lz)
    (0 1.1281163005040928 $Lz)
    (0 1.1921442539710998 0)
    ($Lx 1.1921442539710998 0)
    ($Lx 1.1921442539710998 $Lz)
    (0 1.1921442539710998 $Lz)
    (0 1.2561028664085623 0)
    ($Lx 1.2561028664085623 0)
    ($Lx 1.2561028664085623 $Lz)
    (0 1.2561028664085623 $Lz)
    (0 1.3198948327241222 0)
    ($Lx 1.3198948327241222 0)
    ($Lx 1.3198948327241222 $Lz)
    (0 1.3198948327241222 $Lz)
    (0 1.3833226771897191 0)
    ($Lx 1.3833226771897191 0)
    ($Lx 1.3833226771897191 $Lz)
    (0 1.3833226771897191 $Lz)
    (0 1.4460267835660507 0)
    ($Lx 1.4460267835660507 0)
    ($Lx 1.4460267835660507 $Lz)
    (0 1.4460267835660507 $Lz)
    (0 1.507422243688279 0)
    ($Lx 1.507422243688279 0)
    ($Lx 1.507422243688279 $Lz)
    (0 1.507422243688279 $Lz)
    (0 1.5666650562953772 0)
    ($Lx 1.5666650562953772 0)
    ($Lx 1.5666650562953772 $Lz)
    (0 1.5666650562953772 $Lz)
    (0 1.6226865398324493 0)
    ($Lx 1.6226865398324493 0)
    ($Lx 1.6226865398324493 $Lz)
    (0 1.6226865398324493 $Lz)
    (0 1.6743226150471981 0)
    ($Lx 1.6743226150471981 0)
    ($Lx 1.6743226150471981 $Lz)
    (0 1.6743226150471981 $Lz)
    (0 1.720527453733982 0)
    ($Lx 1.720527453733982 0)
    ($Lx 1.720527453733982 $Lz)
    (0 1.720527453733982 $Lz)
    (0 1.7606129916501037 0)
    ($Lx 1.7606129916501037 0)
    ($Lx 1.7606129916501037 $Lz)
    (0 1.7606129916501037 $Lz)
    (0 1.7944263330129075 0)
    ($Lx 1.7944263330129075 0)
    ($Lx 1.7944263330129075 $Lz)
    (0 1.7944263330129075 $Lz)
    (0 1.8223910682754128 0)
    ($Lx 1.8223910682754128 0)
    ($Lx 1.8223910682754128 $Lz)
    (0 1.8223910682754128 $Lz)
    (0 1.8453944551881722 0)
    ($Lx 1.8453944551881722 0)
    ($Lx 1.8453944551881722 $Lz)
    (0 1.8453944551881722 $Lz)
    (0 1.8645690552503071 0)
    ($Lx 1.8645690552503071 0)
    ($Lx 1.8645690552503071 $Lz)
    (0 1.8645690552503071 $Lz)
    (0 1.8810556137999463 0)
    ($Lx 1.8810556137999463 0)
    ($Lx 1.8810556137999463 $Lz)
    (0 1.8810556137999463 $Lz)
    (0 1.8958253594453751 0)
    ($Lx 1.8958253594453751 0)
    ($Lx 1.8958253594453751 $Lz)
    (0 1.8958253594453751 $Lz)
    (0 1.9095975869552086 0)
    ($Lx 1.9095975869552086 0)
    ($Lx 1.9095975869552086 $Lz)
    (0 1.9095975869552086 $Lz)
    (0 1.9228425508488918 0)
    ($Lx 1.9228425508488918 0)
    ($Lx 1.9228425508488918 $Lz)
    (0 1.9228425508488918 $Lz)
    (0 1.9358339773344533 0)
    ($Lx 1.9358339773344533 0)
    ($Lx 1.9358339773344533 $Lz)
    (0 1.9358339773344533 $Lz)
    (0 1.9487144962143368 0)
    ($Lx 1.9487144962143368 0)
    ($Lx 1.9487144962143368 $Lz)
    (0 1.9487144962143368 $Lz)
    (0 1.961550880087113 0)
    ($Lx 1.961550880087113 0)
    ($Lx 1.961550880087113 $Lz)
    (0 1.961550880087113 $Lz)
    (0 1.9743712866020744 0)
    ($Lx 1.9743712866020744 0)
    ($Lx 1.9743712866020744 $Lz)
    (0 1.9743712866020744 $Lz)
    (0 1.9871864314461711 0)
    ($Lx 1.9871864314461711 0)
    ($Lx 1.9871864314461711 $Lz)
    (0 1.9871864314461711 $Lz)
    (0 2.0 0)
    ($Lx 2.0 0)
    ($Lx 2.0 $Lz)
    (0 2.0 $Lz)
);

blocks
(
    hex (0 1 5 4 3 2 6 7) ($Nx 1 $Nz) simpleGrading (1 1 1)
    hex (4 5 9 8 7 6 10 11) ($Nx 1 $Nz) simpleGrading (1 1 1)
    hex (8 9 13 12 11 10 14 15) ($Nx 1 $Nz) simpleGrading (1 1 1)
    hex (12 13 17 16 15 14 18 19) ($Nx 1 $Nz) simpleGrading (1 1 1)
    hex (16 17 21 20 19 18 22 23) ($Nx 1 $Nz) simpleGrading (1 1 1)
    hex (20 21 25 24 23 22 26 27) ($Nx 1 $Nz) simpleGrading (1 1 1)
    hex (24 25 29 28 27 26 30 31) ($Nx 1 $Nz) simpleGrading (1 1 1)
    hex (28 29 33 32 31 30 34 35) ($Nx 1 $Nz) simpleGrading (1 1 1)
    hex (32 33 37 36 35 34 38 39) ($Nx 1 $Nz) simpleGrading (1 1 1)
    hex (36 37 41 40 39 38 42 43) ($Nx 1 $Nz) simpleGrading (1 1 1)
    hex (40 41 45 44 43 42 46 47) ($Nx 1 $Nz) simpleGrading (1 1 1)
    hex (44 45 49 48 47 46 50 51) ($Nx 1 $Nz) simpleGrading (1 1 1)
    hex (48 49 53 52 51 50 54 55) ($Nx 1 $Nz) simpleGrading (1 1 1)
    hex (52 53 57 56 55 54 58 59) ($Nx 1 $Nz) simpleGrading (1 1 1)
    hex (56 57 61 60 59 58 62 63) ($Nx 1 $Nz) simpleGrading (1 1 1)
    hex (60 61 65 64 63 62 66 67) ($Nx 1 $Nz) simpleGrading (1 1 1)
    hex (64 65 69 68 67 66 70 71) ($Nx 1 $Nz) simpleGrading (1 1 1)
    hex (68 69 73 72 71 70 74 75) ($Nx 1 $Nz) simpleGrading (1 1 1)
    hex (72 73 77 76 75 74 78 79) ($Nx 1 $Nz) simpleGrading (1 1 1)
    hex (76 77 81 80 79 78 82 83) ($Nx 1 $Nz) simpleGrading (1 1 1)
    hex (80 81 85 84 83 82 86 87) ($Nx 1 $Nz) simpleGrading (1 1 1)
    hex (84 85 89 88 87 86 90 91) ($Nx 1 $Nz) simpleGrading (1 1 1)
    hex (88 89 93 92 91 90 94 95) ($Nx 1 $Nz) simpleGrading (1 1 1)
    hex (92 93 97 96 95 94 98 99) ($Nx 1 $Nz) simpleGrading (1 1 1)
    hex (96 97 101 100 99 98 102 103) ($Nx 1 $Nz) simpleGrading (1 1 1)
    hex (100 101 105 104 103 102 106 107) ($Nx 1 $Nz) simpleGrading (1 1 1)
    hex (104 105 109 108 107 106 110 111) ($Nx 1 $Nz) simpleGrading (1 1 1)
    hex (108 109 113 112 111 110 114 115) ($Nx 1 $Nz) simpleGrading (1 1 1)
    hex (112 113 117 116 115 114 118 119) ($Nx 1 $Nz) simpleGrading (1 1 1)
    hex (116 117 121 120 119 118 122 123) ($Nx 1 $Nz) simpleGrading (1 1 1)
    hex (120 121 125 124 123 122 126 127) ($Nx 1 $Nz) simpleGrading (1 1 1)
    hex (124 125 129 128 127 126 130 131) ($Nx 1 $Nz) simpleGrading (1 1 1)
    hex (128 129 133 132 131 130 134 135) ($Nx 1 $Nz) simpleGrading (1 1 1)
    hex (132 133 137 136 135 134 138 139) ($Nx 1 $Nz) simpleGrading (1 1 1)
    hex (136 137 141 140 139 138 142 143) ($Nx 1 $Nz) simpleGrading (1 1 1)
    hex (140 141 145 144 143 142 146 147) ($Nx 1 $Nz) simpleGrading (1 1 1)
    hex (144 145 149 148 147 146 150 151) ($Nx 1 $Nz) simpleGrading (1 1 1)
    hex (148 149 153 152 151 150 154 155) ($Nx 1 $Nz) simpleGrading (1 1 1)
    hex (152 153 157 156 155 154 158 159) ($Nx 1 $Nz) simpleGrading (1 1 1)
    hex (156 157 161 160 159 158 162 163) ($Nx 1 $Nz) simpleGrading (1 1 1)
    hex (160 161 165 164 163 162 166 167) ($Nx 1 $Nz) simpleGrading (1 1 1)
    hex (164 165 169 168 167 166 170 171) ($Nx 1 $Nz) simpleGrading (1 1 1)
    hex (168 169 173 172 171 170 174 175) ($Nx 1 $Nz) simpleGrading (1 1 1)
    hex (172 173 177 176 175 174 178 179) ($Nx 1 $Nz) simpleGrading (1 1 1)
    hex (176 177 181 180 179 178 182 183) ($Nx 1 $Nz) simpleGrading (1 1 1)
    hex (180 181 185 184 183 182 186 187) ($Nx 1 $Nz) simpleGrading (1 1 1)
    hex (184 185 189 188 187 186 190 191) ($Nx 1 $Nz) simpleGrading (1 1 1)
    hex (188 189 193 192 191 190 194 195) ($Nx 1 $Nz) simpleGrading (1 1 1)
    hex (192 193 197 196 195 194 198 199) ($Nx 1 $Nz) simpleGrading (1 1 1)
    hex (196 197 201 200 199 198 202 203) ($Nx 1 $Nz) simpleGrading (1 1 1)
    hex (200 201 205 204 203 202 206 207) ($Nx 1 $Nz) simpleGrading (1 1 1)
    hex (204 205 209 208 207 206 210 211) ($Nx 1 $Nz) simpleGrading (1 1 1)
    hex (208 209 213 212 211 210 214 215) ($Nx 1 $Nz) simpleGrading (1 1 1)
    hex (212 213 217 216 215 214 218 219) ($Nx 1 $Nz) simpleGrading (1 1 1)
);

edges
(
);

boundary
(
    inlet
    {
        type            cyclic;
        neighbourPatch  outlet;
        faces
        (
            (0 3 7 4)
            (4 7 11 8)
            (8 11 15 12)
            (12 15 19 16)
            (16 19 23 20)
            (20 23 27 24)
            (24 27 31 28)
            (28 31 35 32)
            (32 35 39 36)
            (36 39 43 40)
            (40 43 47 44)
            (44 47 51 48)
            (48 51 55 52)
            (52 55 59 56)
            (56 59 63 60)
            (60 63 67 64)
            (64 67 71 68)
            (68 71 75 72)
            (72 75 79 76)
            (76 79 83 80)
            (80 83 87 84)
            (84 87 91 88)
            (88 91 95 92)
            (92 95 99 96)
            (96 99 103 100)
            (100 103 107 104)
            (104 107 111 108)
            (108 111 115 112)
            (112 115 119 116)
            (116 119 123 120)
            (120 123 127 124)
            (124 127 131 128)
            (128 131 135 132)
            (132 135 139 136)
            (136 139 143 140)
            (140 143 147 144)
            (144 147 151 148)
            (148 151 155 152)
            (152 155 159 156)
            (156 159 163 160)
            (160 163 167 164)
            (164 167 171 168)
            (168 171 175 172)
            (172 175 179 176)
            (176 179 183 180)
            (180 183 187 184)
            (184 187 191 188)
            (188 191 195 192)
            (192 195 199 196)
            (196 199 203 200)
            (200 203 207 204)
            (204 207 211 208)
            (208 211 215 212)
            (212 215 219 216)
        );
    }

    outlet
    {
        type            cyclic;
        neighbourPatch  inlet;
        faces
        (
            (1 5 6 2)
            (5 9 10 6)
            (9 13 14 10)
            (13 17 18 14)
            (17 21 22 18)
            (21 25 26 22)
            (25 29 30 26)
            (29 33 34 30)
            (33 37 38 34)
            (37 41 42 38)
            (41 45 46 42)
            (45 49 50 46)
            (49 53 54 50)
            (53 57 58 54)
            (57 61 62 58)
            (61 65 66 62)
            (65 69 70 66)
            (69 73 74 70)
            (73 77 78 74)
            (77 81 82 78)
            (81 85 86 82)
            (85 89 90 86)
            (89 93 94 90)
            (93 97 98 94)
            (97 101 102 98)
            (101 105 106 102)
            (105 109 110 106)
            (109 113 114 110)
            (113 117 118 114)
            (117 121 122 118)
            (121 125 126 122)
            (125 129 130 126)
            (129 133 134 130)
            (133 137 138 134)
            (137 141 142 138)
            (141 145 146 142)
            (145 149 150 146)
            (149 153 154 150)
            (153 157 158 154)
            (157 161 162 158)
            (161 165 166 162)
            (165 169 170 166)
            (169 173 174 170)
            (173 177 178 174)
            (177 181 182 178)
            (181 185 186 182)
            (185 189 190 186)
            (189 193 194 190)
            (193 197 198 194)
            (197 201 202 198)
            (201 205 206 202)
            (205 209 210 206)
            (209 213 214 210)
            (213 217 218 214)
        );
    }

    bottomWall
    {
        type            wall;
        faces
        (
            (0 1 2 3)
        );
    }

    topWall
    {
        type            wall;
        faces
        (
            (217 216 219 218)
        );
    }

    left
    {
        type            cyclic;
        neighbourPatch  right;
        faces
        (
            (0 4 5 1)
            (4 8 9 5)
            (8 12 13 9)
            (12 16 17 13)
            (16 20 21 17)
            (20 24 25 21)
            (24 28 29 25)
            (28 32 33 29)
            (32 36 37 33)
            (36 40 41 37)
            (40 44 45 41)
            (44 48 49 45)
            (48 52 53 49)
            (52 56 57 53)
            (56 60 61 57)
            (60 64 65 61)
            (64 68 69 65)
            (68 72 73 69)
            (72 76 77 73)
            (76 80 81 77)
            (80 84 85 81)
            (84 88 89 85)
            (88 92 93 89)
            (92 96 97 93)
            (96 100 101 97)
            (100 104 105 101)
            (104 108 109 105)
            (108 112 113 109)
            (112 116 117 113)
            (116 120 121 117)
            (120 124 125 121)
            (124 128 129 125)
            (128 132 133 129)
            (132 136 137 133)
            (136 140 141 137)
            (140 144 145 141)
            (144 148 149 145)
            (148 152 153 149)
            (152 156 157 153)
            (156 160 161 157)
            (160 164 165 161)
            (164 168 169 165)
            (168 172 173 169)
            (172 176 177 173)
            (176 180 181 177)
            (180 184 185 181)
            (184 188 189 185)
            (188 192 193 189)
            (192 196 197 193)
            (196 200 201 197)
            (200 204 205 201)
            (204 208 209 205)
            (208 212 213 209)
            (212 216 217 213)
        );
    }

    right
    {
        type            cyclic;
        neighbourPatch  left;
        faces
        (
            (3 2 6 7)
            (7 6 10 11)
            (11 10 14 15)
            (15 14 18 19)
            (19 18 22 23)
            (23 22 26 27)
            (27 26 30 31)
            (31 30 34 35)
            (35 34 38 39)
            (39 38 42 43)
            (43 42 46 47)
            (47 46 50 51)
            (51 50 54 55)
            (55 54 58 59)
            (59 58 62 63)
            (63 62 66 67)
            (67 66 70 71)
            (71 70 74 75)
            (75 74 78 79)
            (79 78 82 83)
            (83 82 86 87)
            (87 86 90 91)
            (91 90 94 95)
            (95 94 98 99)
            (99 98 102 103)
            (103 102 106 107)
            (107 106 110 111)
            (111 110 114 115)
            (115 114 118 119)
            (119 118 122 123)
            (123 122 126 127)
            (127 126 130 131)
            (131 130 134 135)
            (135 134 138 139)
            (139 138 142 143)
            (143 142 146 147)
            (147 146 150 151)
            (151 150 154 155)
            (155 154 158 159)
            (159 158 162 163)
            (163 162 166 167)
            (167 166 170 171)
            (171 170 174 175)
            (175 174 178 179)
            (179 178 182 183)
            (183 182 186 187)
            (187 186 190 191)
            (191 190 194 195)
            (195 194 198 199)
            (199 198 202 203)
            (203 202 206 207)
            (207 206 210 211)
            (211 210 214 215)
            (215 214 218 219)
        );
    }
);

mergePatchPairs
(
);

// ************************************************************************* //
