/*--------------------------------*- C++ -*----------------------------------*\
| =========                 |                                                 |
| \      /  F ield         | OpenFOAM: The Open Source CFD Toolbox           |
|  \    /   O peration     | Version:  2.2.0                                 |
|   \  /    A nd           | Web:      www.OpenFOAM.org                      |
|    \/     M anipulation  |                                                 |
\*---------------------------------------------------------------------------*/
FoamFile
{
    version     2.0;
    format      ascii;
    class       dictionary;
    object      blockMeshDict;
}
// * * * * * * * * * * * * * * * * * * * * * * * * * * * * * * * * * * * * * //

scale 1;
Lx 12.566370614359172;
Lz 0.1;

Nx 44;
Ny 22;
Nz 1;

vertices
(
    (0 0.0 0)
    ($Lx 0.0 0)
    ($Lx 0.0 $Lz)
    (0 0.0 $Lz)
    (0 0.03613788575707089 0)
    ($Lx 0.03613788575707089 0)
    ($Lx 0.03613788575707089 $Lz)
    (0 0.03613788575707089 $Lz)
    (0 0.07229407727011229 0)
    ($Lx 0.07229407727011229 0)
    ($Lx 0.07229407727011229 $Lz)
    (0 0.07229407727011229 $Lz)
    (0 0.10871776556142408 0)
    ($Lx 0.10871776556142408 0)
    ($Lx 0.10871776556142408 $Lz)
    (0 0.10871776556142408 $Lz)
    (0 0.1473580793440202 0)
    ($Lx 0.1473580793440202 0)
    ($Lx 0.1473580793440202 $Lz)
    (0 0.1473580793440202 $Lz)
    (0 0.19644027242542753 0)
    ($Lx 0.19644027242542753 0)
    ($Lx 0.19644027242542753 $Lz)
    (0 0.19644027242542753 $Lz)
    (0 0.2735441964598736 0)
    ($Lx 0.2735441964598736 0)
    ($Lx 0.2735441964598736 $Lz)
    (0 0.2735441964598736 $Lz)
    (0 0.3935519322715012 0)
    ($Lx 0.3935519322715012 0)
    ($Lx 0.3935519322715012 $Lz)
    (0 0.3935519322715012 $Lz)
    (0 0.5510641319398095 0)
    ($Lx 0.5510641319398095 0)
    ($Lx 0.5510641319398095 $Lz)
    (0 0.5510641319398095 $Lz)
    (0 0.7272899177778626 0)
    ($Lx 0.7272899177778626 0)
    ($Lx 0.7272899177778626 $Lz)
    (0 0.7272899177778626 $Lz)
    (0 0.9088356938036576 0)
    ($Lx 0.9088356938036576 0)
    ($Lx 0.9088356938036576 $Lz)
    (0 0.9088356938036576 $Lz)
    (0 1.0911643061963425 0)
    ($Lx 1.0911643061963425 0)
    ($Lx 1.0911643061963425 $Lz)
    (0 1.0911643061963425 $Lz)
    (0 1.2727100822221376 0)
    ($Lx 1.2727100822221376 0)
    ($Lx 1.2727100822221376 $Lz)
    (0 1.2727100822221376 $Lz)
    (0 1.4489358680601905 0)
    ($Lx 1.4489358680601905 0)
    ($Lx 1.4489358680601905 $Lz)
    (0 1.4489358680601905 $Lz)
    (0 1.6064480677284987 0)
    ($Lx 1.6064480677284987 0)
    ($Lx 1.6064480677284987 $Lz)
    (0 1.6064480677284987 $Lz)
    (0 1.7264558035401263 0)
    ($Lx 1.7264558035401263 0)
    ($Lx 1.7264558035401263 $Lz)
    (0 1.7264558035401263 $Lz)
    (0 1.8035597275745723 0)
    ($Lx 1.8035597275745723 0)
    ($Lx 1.8035597275745723 $Lz)
    (0 1.8035597275745723 $Lz)
    (0 1.8526419206559797 0)
    ($Lx 1.8526419206559797 0)
    ($Lx 1.8526419206559797 $Lz)
    (0 1.8526419206559797 $Lz)
    (0 1.8912822344385758 0)
    ($Lx 1.8912822344385758 0)
    ($Lx 1.8912822344385758 $Lz)
    (0 1.8912822344385758 $Lz)
    (0 1.9277059227298876 0)
    ($Lx 1.9277059227298876 0)
    ($Lx 1.9277059227298876 $Lz)
    (0 1.9277059227298876 $Lz)
    (0 1.9638621142429291 0)
    ($Lx 1.9638621142429291 0)
    ($Lx 1.9638621142429291 $Lz)
    (0 1.9638621142429291 $Lz)
    (0 2.0 0)
    ($Lx 2.0 0)
    ($Lx 2.0 $Lz)
    (0 2.0 $Lz)
);

blocks
(
    hex (0 1 5 4 3 2 6 7) ($Nx 1 $Nz) simpleGrading (1 1 1)
    hex (4 5 9 8 7 6 10 11) ($Nx 1 $Nz) simpleGrading (1 1 1)
    hex (8 9 13 12 11 10 14 15) ($Nx 1 $Nz) simpleGrading (1 1 1)
    hex (12 13 17 16 15 14 18 19) ($Nx 1 $Nz) simpleGrading (1 1 1)
    hex (16 17 21 20 19 18 22 23) ($Nx 1 $Nz) simpleGrading (1 1 1)
    hex (20 21 25 24 23 22 26 27) ($Nx 1 $Nz) simpleGrading (1 1 1)
    hex (24 25 29 28 27 26 30 31) ($Nx 1 $Nz) simpleGrading (1 1 1)
    hex (28 29 33 32 31 30 34 35) ($Nx 1 $Nz) simpleGrading (1 1 1)
    hex (32 33 37 36 35 34 38 39) ($Nx 1 $Nz) simpleGrading (1 1 1)
    hex (36 37 41 40 39 38 42 43) ($Nx 1 $Nz) simpleGrading (1 1 1)
    hex (40 41 45 44 43 42 46 47) ($Nx 1 $Nz) simpleGrading (1 1 1)
    hex (44 45 49 48 47 46 50 51) ($Nx 1 $Nz) simpleGrading (1 1 1)
    hex (48 49 53 52 51 50 54 55) ($Nx 1 $Nz) simpleGrading (1 1 1)
    hex (52 53 57 56 55 54 58 59) ($Nx 1 $Nz) simpleGrading (1 1 1)
    hex (56 57 61 60 59 58 62 63) ($Nx 1 $Nz) simpleGrading (1 1 1)
    hex (60 61 65 64 63 62 66 67) ($Nx 1 $Nz) simpleGrading (1 1 1)
    hex (64 65 69 68 67 66 70 71) ($Nx 1 $Nz) simpleGrading (1 1 1)
    hex (68 69 73 72 71 70 74 75) ($Nx 1 $Nz) simpleGrading (1 1 1)
    hex (72 73 77 76 75 74 78 79) ($Nx 1 $Nz) simpleGrading (1 1 1)
    hex (76 77 81 80 79 78 82 83) ($Nx 1 $Nz) simpleGrading (1 1 1)
    hex (80 81 85 84 83 82 86 87) ($Nx 1 $Nz) simpleGrading (1 1 1)
);

edges
(
);

boundary
(
    inlet
    {
        type            cyclic;
        neighbourPatch  outlet;
        faces
        (
            (0 3 7 4)
            (4 7 11 8)
            (8 11 15 12)
            (12 15 19 16)
            (16 19 23 20)
            (20 23 27 24)
            (24 27 31 28)
            (28 31 35 32)
            (32 35 39 36)
            (36 39 43 40)
            (40 43 47 44)
            (44 47 51 48)
            (48 51 55 52)
            (52 55 59 56)
            (56 59 63 60)
            (60 63 67 64)
            (64 67 71 68)
            (68 71 75 72)
            (72 75 79 76)
            (76 79 83 80)
            (80 83 87 84)
        );
    }

    outlet
    {
        type            cyclic;
        neighbourPatch  inlet;
        faces
        (
            (1 5 6 2)
            (5 9 10 6)
            (9 13 14 10)
            (13 17 18 14)
            (17 21 22 18)
            (21 25 26 22)
            (25 29 30 26)
            (29 33 34 30)
            (33 37 38 34)
            (37 41 42 38)
            (41 45 46 42)
            (45 49 50 46)
            (49 53 54 50)
            (53 57 58 54)
            (57 61 62 58)
            (61 65 66 62)
            (65 69 70 66)
            (69 73 74 70)
            (73 77 78 74)
            (77 81 82 78)
            (81 85 86 82)
        );
    }

    bottomWall
    {
        type            wall;
        faces
        (
            (0 1 2 3)
        );
    }

    topWall
    {
        type            wall;
        faces
        (
            (85 84 87 86)
        );
    }

    left
    {
        type            cyclic;
        neighbourPatch  right;
        faces
        (
            (0 4 5 1)
            (4 8 9 5)
            (8 12 13 9)
            (12 16 17 13)
            (16 20 21 17)
            (20 24 25 21)
            (24 28 29 25)
            (28 32 33 29)
            (32 36 37 33)
            (36 40 41 37)
            (40 44 45 41)
            (44 48 49 45)
            (48 52 53 49)
            (52 56 57 53)
            (56 60 61 57)
            (60 64 65 61)
            (64 68 69 65)
            (68 72 73 69)
            (72 76 77 73)
            (76 80 81 77)
            (80 84 85 81)
        );
    }

    right
    {
        type            cyclic;
        neighbourPatch  left;
        faces
        (
            (3 2 6 7)
            (7 6 10 11)
            (11 10 14 15)
            (15 14 18 19)
            (19 18 22 23)
            (23 22 26 27)
            (27 26 30 31)
            (31 30 34 35)
            (35 34 38 39)
            (39 38 42 43)
            (43 42 46 47)
            (47 46 50 51)
            (51 50 54 55)
            (55 54 58 59)
            (59 58 62 63)
            (63 62 66 67)
            (67 66 70 71)
            (71 70 74 75)
            (75 74 78 79)
            (79 78 82 83)
            (83 82 86 87)
        );
    }
);

mergePatchPairs
(
);

// ************************************************************************* //
