/*--------------------------------*- C++ -*----------------------------------*\
| =========                 |                                                 |
| \\      /  F ield         | OpenFOAM: The Open Source CFD Toolbox           |
|  \\    /   O peration     | Version:  2.2.0                                 |
|   \\  /    A nd           | Web:      www.OpenFOAM.org                      |
|    \\/     M anipulation  |                                                 |
\*---------------------------------------------------------------------------*/
FoamFile
{
    version     2.0;
    format      ascii;
    class       dictionary;
    location    "system";
    object      fvOptions;
}
// * * * * * * * * * * * * * * * * * * * * * * * * * * * * * * * * * * * * * //

momentumSource1
{
    type            vectorSemiImplicitSource;
    active          yes;

    vectorSemiImplicitSourceCoeffs
    {
        selectionMode   all;
        volumeMode      specific;//specific-0.099;absolute-0.006;
        injectionRateSuSp
        {
            U           ((0.000 0 0) 0);
        }
    }
}



// ************************************************************************* //
