/*--------------------------------*- C++ -*----------------------------------*\
| =========                 |                                                 |
| \\      /  F ield         | OpenFOAM: The Open Source CFD Toolbox           |
|  \\    /   O peration     | Version:  v1812                                 |
|   \\  /    A nd           | Web:      www.OpenFOAM.com                      |
|    \\/     M anipulation  |                                                 |
\*---------------------------------------------------------------------------*/
FoamFile
{
    version     2.0;
    format      ascii;
    class       polyBoundaryMesh;
    location    "constant/polyMesh";
    object      boundary;
}
// * * * * * * * * * * * * * * * * * * * * * * * * * * * * * * * * * * * * * //

6
(
    inlet
    {
        type            cyclic;
        inGroups        1(cyclic);
        nFaces          65;
        startFace       11158;
        matchTolerance  0.0001;
        transform       unknown;
        neighbourPatch  outlet;
    }
    outlet
    {
        type            cyclic;
        inGroups        1(cyclic);
        nFaces          65;
        startFace       11223;
        matchTolerance  0.0001;
        transform       unknown;
        neighbourPatch  inlet;
    }
    bottomWall
    {
        type            wall;
        inGroups        1(wall);
        nFaces          87;
        startFace       11288;
    }
    topWall
    {
        type            wall;
        inGroups        1(wall);
        nFaces          87;
        startFace       11375;
    }
    left
    {
        type            cyclic;
        inGroups        1(cyclic);
        nFaces          5655;
        startFace       11462;
        matchTolerance  0.0001;
        transform       unknown;
        neighbourPatch  right;
    }
    right
    {
        type            cyclic;
        inGroups        1(cyclic);
        nFaces          5655;
        startFace       17117;
        matchTolerance  0.0001;
        transform       unknown;
        neighbourPatch  left;
    }
)

// ************************************************************************* //
